#RADIOSS STARTER
##========================================================================================
##
## Radioss Input Deck Generated by HyperMesh Version  : 2022.3.0.24
## Generated using HyperMesh-Radioss Template Version : 2022.3.0.24
## Date: 12-09-2023   Time: 12:04:25
##
##========================================================================================
##
##--------------------------------------------------------------------------------------------------
#--------------------------------------------------------------------------------------------------|
#- RADIOSS DECK WRITTEN BY HyperCrash
#HyperCrash 11.0 430 (64 bits) 
#Fri Feb 22 16:20:19 2013
#-
#--------------------------------------------------------------------------------------------------|
#- RADIOSS DECK WRITTEN BY HyperCrash
#HyperCrash 10.1 (64 bits)
#Tue Feb 07 13:14:49 2012
#-
#--------------------------------------------------------------------------------------------------|
#- RADIOSS DECK WRITTEN BY HyperCrash
#HyperCrash 9.0 SA1
#Fri Jan 30 02:40:30 2009
#-
#-
#- DATE	Fri Jan 30 02:40:30 2009
#--------------------------------------------------------------------------------------------------|
#
#-
#- DATE	Tue Feb 07 13:14:49 2012
#--------------------------------------------------------------------------------------------------|
#
#-
#- DATE	Fri Feb 22 16:20:19 2013
#--------------------------------------------------------------------------------------------------|
#---1----|----2----|----3----|----4----|----5----|----6----|----7----|----8----|----9----|---10----|
##
/BEGIN
#Runname                                                                        
ThreePointBending                                                               
#   Invers      Irun
      2022         0
#    Input_mass_unit   Input_length_unit     Input_time_unit
                  Mg                  mm                   s
#     Work_mass_unit    Work_length_unit      Work_time_unit
                  Mg                  mm                   s
#---1----|----2----|----3----|----4----|----5----|----6----|----7----|----8----|----9----|---10----|
/TITLE
                                                                                                    
#---1----|----2----|----3----|----4----|----5----|----6----|----7----|----8----|----9----|---10----|
/ANALY
#    N2D3D             Iparith Isubcycle
         0                   0         0
#---1----|----2----|----3----|----4----|----5----|----6----|----7----|----8----|----9----|---10----|
/DEF_SOLID
#   Isolid    Ismstr                       Itetra4  Itetra10      Imas
         0         0                                                  
#---1----|----2----|----3----|----4----|----5----|----6----|----7----|----8----|----9----|---10----|
/IOFLAG
#     Ipri               Igtyp     Ioutp  OutyyFmT   Irootyy     Idrot                              
         0                   0         0         0         0                                        
#---1----|----2----|----3----|----4----|----5----|----6----|----7----|----8----|----9----|---10----|
/MEMORY
#    NMOTS                          REAL
     20000                              
#---1----|----2----|----3----|----4----|----5----|----6----|----7----|----8----|----9----|---10----|
/SPMD
#   Domdec     Nspmd              Dkword             Nthread
         0         0                   0                   1
##
#---1----|----2----|----3----|----4----|----5----|----6----|----7----|----8----|----9----|---10----|
/NODE
#  node_ID                  Xc                  Yc                  Zc
      3246                 0.0               -70.0               112.0
      3247     14.235782507653               -70.0    108.974091017491
      3248    26.0100688917088               -70.0     100.41957122256
      3249    33.2869780703291               -70.0    87.8155948031272
      3250    34.8082663378896               -70.0    73.3415037856322
      3251    30.3108891324552               -70.0    59.4999999999998
      3252    20.5724838302366               -70.0    48.6844051968768
      3253    7.27690917862159               -70.0    42.7648339743168
      3254   -7.27690917862156               -70.0    42.7648339743168
      3255   -20.5724838302366               -70.0    48.6844051968768
      3256   -30.3108891324552               -70.0    59.4999999999998
      3257   -34.8082663378896               -70.0    73.3415037856321
      3258   -33.2869780703291               -70.0    87.8155948031272
      3259   -26.0100688917088               -70.0     100.41957122256
      3260    -14.235782507653               -70.0    108.974091017491
      3261                 0.0   -54.4444444444444               112.0
      3262                 0.0   -38.8888888888889               112.0
      3263                 0.0   -23.3333333333333               112.0
      3264                 0.0   -7.77777777777778               112.0
      3265                 0.0    7.77777777777778               112.0
# ... 7666 like lines cut
#---1----|----2----|----3----|----4----|----5----|----6----|----7----|----8----|----9----|---10----|
/SHELL/4
# shell_ID  node_ID1  node_ID2  node_ID3  node_ID4                         phi_s               Thick
      3201      3299      3301      3303      3298                                                  
      3202      3298      3303      3293      3294                                                  
      3203      3286      3304      3302      3285                                                  
      3204      3304      3303      3301      3302                                                  
      3205      3287      3292      3304      3286                                                  
      3206      3292      3293      3303      3304                                                  
      3207      3273      3274      3305      3300                                                  
      3208      3300      3305      3301      3299                                                  
      3209      3284      3306      3275      3276                                                  
      3210      3306      3305      3274      3275                                                  
      3211      3285      3302      3306      3284                                                  
      3212      3302      3301      3305      3306                                                  
      3213      3310      3311      3307      3308                                                  
      3214      3311      3266      3267      3307                                                  
      3215      3296      3297      3311      3310                                                  
      3216      3297      3265      3266      3311                                                  
      3217      3298      3312      3309      3299                                                  
      3218      3312      3310      3308      3309                                                  
      3219      3294      3295      3312      3298                                                  
      3220      3295      3296      3310      3312                                                  
# ... 115 like lines cut
/SHELL/2
# shell_ID  node_ID1  node_ID2  node_ID3  node_ID4                         phi_s               Thick
      3339      3403      3567      3568      3402                                                  
      3340      3402      3568      3400      3401                                                  
      3341      3567      3561      3562      3568                                                  
      3342      3568      3562      3399      3400                                                  
      3343      3404      3569      3567      3403                                                  
      3344      3569      3560      3561      3567                                                  
      3345      3406      3566      3570      3405                                                  
      3346      3405      3570      3569      3404                                                  
      3347      3566      3558      3559      3570                                                  
      3348      3570      3559      3560      3569                                                  
      3349      3408      3571      3572      3407                                                  
      3350      3407      3572      3566      3406                                                  
      3351      3571      3556      3557      3572                                                  
      3352      3572      3557      3558      3566                                                  
      3353      3409      3573      3571      3408                                                  
      3354      3573      3555      3556      3571                                                  
      3355      3411      3565      3574      3410                                                  
      3356      3410      3574      3573      3409                                                  
      3357      3565      3553      3554      3574                                                  
      3358      3574      3554      3555      3573                                                  
# ... 6060 like lines cut
/SHELL/8
# shell_ID  node_ID1  node_ID2  node_ID3  node_ID4                         phi_s               Thick
      9419      4776      9318      9319      4777                                                  
      9420      4777      9319      9312      4614                                                  
      9421      9318      4533      4534      9319                                                  
      9422      9319      4534      4371      9312                                                  
      9423      4775      9320      9318      4776                                                  
      9424      9320      4532      4533      9318                                                  
      9425      4773      9317      9321      4774                                                  
      9426      4774      9321      9320      4775                                                  
      9427      9317      4530      4531      9321                                                  
      9428      9321      4531      4532      9320                                                  
      9429      4771      9322      9323      4772                                                  
      9430      4772      9323      9317      4773                                                  
      9431      9322      4528      4529      9323                                                  
      9432      9323      4529      4530      9317                                                  
      9433      4770      9324      9322      4771                                                  
      9434      9324      4527      4528      9322                                                  
      9435      4768      9316      9325      4769                                                  
      9436      4769      9325      9324      4770                                                  
      9437      9316      4525      4526      9325                                                  
      9438      9325      4526      4527      9324                                                  
# ... 620 like lines cut
/SHELL/9
# shell_ID  node_ID1  node_ID2  node_ID3  node_ID4                         phi_s               Thick
     10059      4290      9642      9643      4291                                                  
     10060      4291      9643      9636      4128                                                  
     10061      9642      4375      4374      9643                                                  
     10062      9643      4374      4373      9636                                                  
     10063      4289      9644      9642      4290                                                  
     10064      9644      4376      4375      9642                                                  
     10065      4287      9641      9645      4288                                                  
     10066      4288      9645      9644      4289                                                  
     10067      9641      4378      4377      9645                                                  
     10068      9645      4377      4376      9644                                                  
     10069      4285      9646      9647      4286                                                  
     10070      4286      9647      9641      4287                                                  
     10071      9646      4380      4379      9647                                                  
     10072      9647      4379      4378      9641                                                  
     10073      4284      9648      9646      4285                                                  
     10074      9648      4381      4380      9646                                                  
     10075      4282      9640      9649      4283                                                  
     10076      4283      9649      9648      4284                                                  
     10077      9640      4383      4382      9649                                                  
     10078      9649      4382      4381      9648                                                  
# ... 620 like lines cut
/SHELL/10
# shell_ID  node_ID1  node_ID2  node_ID3  node_ID4                         phi_s               Thick
     10699      4047      9966      9967      4048                                                  
     10700      4048      9967      9960      3885                                                  
     10701      9966      4132      4131      9967                                                  
     10702      9967      4131      4130      9960                                                  
     10703      4046      9968      9966      4047                                                  
     10704      9968      4133      4132      9966                                                  
     10705      4044      9965      9969      4045                                                  
     10706      4045      9969      9968      4046                                                  
     10707      9965      4135      4134      9969                                                  
     10708      9969      4134      4133      9968                                                  
     10709      4042      9970      9971      4043                                                  
     10710      4043      9971      9965      4044                                                  
     10711      9970      4137      4136      9971                                                  
     10712      9971      4136      4135      9965                                                  
     10713      4041      9972      9970      4042                                                  
     10714      9972      4138      4137      9970                                                  
     10715      4039      9964      9973      4040                                                  
     10716      4040      9973      9972      4041                                                  
     10717      9964      4140      4139      9973                                                  
     10718      9973      4139      4138      9972                                                  
# ... 620 like lines cut
/SHELL/11
# shell_ID  node_ID1  node_ID2  node_ID3  node_ID4                         phi_s               Thick
     11339      3645     10291     10284      3644                                                  
     11340     10291      3888      3887     10284                                                  
     11341      3646     10290     10291      3645                                                  
     11342     10290      3889      3888     10291                                                  
     11343      3647     10292     10290      3646                                                  
     11344     10292      3890      3889     10290                                                  
     11345      3649     10289     10293      3648                                                  
     11346      3648     10293     10292      3647                                                  
     11347     10289      3892      3891     10293                                                  
     11348     10293      3891      3890     10292                                                  
     11349      3651     10294     10295      3650                                                  
     11350      3650     10295     10289      3649                                                  
     11351     10294      3894      3893     10295                                                  
     11352     10295      3893      3892     10289                                                  
     11353      3652     10296     10294      3651                                                  
     11354     10296      3895      3894     10294                                                  
     11355      3654     10288     10297      3653                                                  
     11356      3653     10297     10296      3652                                                  
     11357     10288      3897      3896     10297                                                  
     11358     10297      3896      3895     10296                                                  
# ... 620 like lines cut
/SHELL/12
# shell_ID  node_ID1  node_ID2  node_ID3  node_ID4                         phi_s               Thick
     11979      3804     10614     10615      3805                                                  
     11980      3805     10615     10608      3642                                                  
     11981     10614      3561      3562     10615                                                  
     11982     10615      3562      3399     10608                                                  
     11983      3803     10616     10614      3804                                                  
     11984     10616      3560      3561     10614                                                  
     11985      3801     10613     10617      3802                                                  
     11986      3802     10617     10616      3803                                                  
     11987     10613      3558      3559     10617                                                  
     11988     10617      3559      3560     10616                                                  
     11989      3799     10618     10619      3800                                                  
     11990      3800     10619     10613      3801                                                  
     11991     10618      3556      3557     10619                                                  
     11992     10619      3557      3558     10613                                                  
     11993      3798     10620     10618      3799                                                  
     11994     10620      3555      3556     10618                                                  
     11995      3796     10612     10621      3797                                                  
     11996      3797     10621     10620      3798                                                  
     11997     10612      3553      3554     10621                                                  
     11998     10621      3554      3555     10620                                                  
# ... 620 like lines cut
#---1----|----2----|----3----|----4----|----5----|----6----|----7----|----8----|----9----|---10----|
##HWCOLOR assemblies 3 7
/SUBSET/3
#subset_title                                                                                       
RBE2                                                                                                
#---1----|----2----|----3----|----4----|----5----|----6----|----7----|----8----|----9----|---10----|
##HWCOLOR assemblies 4 5
/SUBSET/4
#subset_title                                                                                       
FEM                                                                                                 
#---1----|----2----|----3----|----4----|----5----|----6----|----7----|----8----|----9----|---10----|
##HWCOLOR assemblies 5 6
/SUBSET/5
#subset_title                                                                                       
GEO                                                                                                 
#---1----|----2----|----3----|----4----|----5----|----6----|----7----|----8----|----9----|---10----|
##HWCOLOR components 2 31
/PART/2
#part_title                                                                                         
Tube                                                                                                
#  prop_ID    mat_ID subset_ID               Thick
         4         2         4                    
#---1----|----2----|----3----|----4----|----5----|----6----|----7----|----8----|----9----|---10----|
##HWCOLOR components 4 20
/PART/4
#part_title                                                                                         
Impactor                                                                                            
#  prop_ID    mat_ID subset_ID               Thick
         3         1         4                    
#---1----|----2----|----3----|----4----|----5----|----6----|----7----|----8----|----9----|---10----|
##HWCOLOR components 8 28
/PART/8
#part_title                                                                                         
t1                                                                                                  
#  prop_ID    mat_ID subset_ID               Thick
         5         2         4                    
#---1----|----2----|----3----|----4----|----5----|----6----|----7----|----8----|----9----|---10----|
##HWCOLOR components 9 25
/PART/9
#part_title                                                                                         
t2                                                                                                  
#  prop_ID    mat_ID subset_ID               Thick
         6         2         4                    
#---1----|----2----|----3----|----4----|----5----|----6----|----7----|----8----|----9----|---10----|
##HWCOLOR components 10 59
/PART/10
#part_title                                                                                         
t3                                                                                                  
#  prop_ID    mat_ID subset_ID               Thick
         7         2         4                    
#---1----|----2----|----3----|----4----|----5----|----6----|----7----|----8----|----9----|---10----|
##HWCOLOR components 11 31
/PART/11
#part_title                                                                                         
t4                                                                                                  
#  prop_ID    mat_ID subset_ID               Thick
         8         2         4                    
#---1----|----2----|----3----|----4----|----5----|----6----|----7----|----8----|----9----|---10----|
##HWCOLOR components 12 39
/PART/12
#part_title                                                                                         
t5                                                                                                  
#  prop_ID    mat_ID subset_ID               Thick
         9         2         4                    
#---1----|----2----|----3----|----4----|----5----|----6----|----7----|----8----|----9----|---10----|
##HWCOLOR materials 1 5
/MAT/ELAST/1
rigid_material                                                                                      
#              RHO_I               RHO_O
1.00000000000000E-06                 0.0
#                  E                  nu
           2000000.0                0.29
#---1----|----2----|----3----|----4----|----5----|----6----|----7----|----8----|----9----|---10----|
##HWCOLOR materials 2 20
/MAT/COWPER/2
shell_material                                                                                      
#        Init. dens.
2.70000000000000E-09
#                  E                  nu
             70000.0                0.33
#                  A                   B                   n              C_HARD              sigmax
               180.0                                                                                
#                  C                   P       ICC   ISMOOTH               F_CUT                  VP
                                                                                                    
#            EPS_MAX               EPST1               EPST2
                                                            
#  fct_IDp                        Fscale
        13                              
#---1----|----2----|----3----|----4----|----5----|----6----|----7----|----8----|----9----|---10----|
##HWCOLOR properties 3 25
/PROP/SHELL/3
PRIGID                                                                                              
#   Ishell    Ismstr     Ish3n    Idrill    Ipinch                  P_Thick_Fail
                                                                                
#                 Hm                  Hf                  Hr                  Dm                  Dn
                                                                                                    
#        N                         Thick              Ashear              Ithick     Iplas
                                  0.9119                                                  
#---1----|----2----|----3----|----4----|----5----|----6----|----7----|----8----|----9----|---10----|
##HWCOLOR properties 4 28
/PROP/SHELL/4
PSHELL                                                                                              
#   Ishell    Ismstr     Ish3n    Idrill    Ipinch                  P_Thick_Fail
         4                                                                      
#                 Hm                  Hf                  Hr                  Dm                  Dn
                                                                                                    
#        N                         Thick              Ashear              Ithick     Iplas
                                     2.0                                                  

#---1----|----2----|----3----|----4----|----5----|----6----|----7----|----8----|----9----|---10----|
##HMGROUP  8 37
/INTER/TYPE7/8
#Title                                                                                              
Imp_Tube                                                                                            
# grnod_id   surf_id      Istf      Ithe      Igap                Ibag      Idel     Icurv      Iadm
        40        39                                                                                
#         Fscale_gap             Gap_max             Fpenmax
                                                            
#              Stmin               Stmax                                   dtmin  Irem_gap   Irem_i2
                                                                                                    
#              Stfac                Fric              Gapmin              Tstart               Tstop
                 0.1                 0.2                                                            
#      IBC                        Inacti                VisS                VisF              Bumult
       000                                                                                          
#    Ifric    Ifiltr               Xfreq     Iform   sens_ID   fct_IDF            Ascale_F   fric_ID
                                                                                                    
/GRNOD/PART/40
#title                                                                                              
set_tube                                                                                            
# item_ID1  item_ID2  item_ID3  item_ID4  item_ID5  item_ID6  item_ID7  item_ID8  item_ID9 item_ID10
         2
## HM Warning: The set associated with the above card is being output in a different location of the deck.
#---1----|----2----|----3----|----4----|----5----|----6----|----7----|----8----|----9----|---10----|
##HMGROUP  9 37
/INTER/TYPE7/9
#Title                                                                                              
Tube_t1                                                                                             
# grnod_id   surf_id      Istf      Ithe      Igap                Ibag      Idel     Icurv      Iadm
        40        43                                                                                
#         Fscale_gap             Gap_max             Fpenmax
                                                            
#              Stmin               Stmax                                   dtmin  Irem_gap   Irem_i2
                                                                                                    
#              Stfac                Fric              Gapmin              Tstart               Tstop
                 0.1                 0.2                                                            
#      IBC                        Inacti                VisS                VisF              Bumult
       000                                                                                          
#    Ifric    Ifiltr               Xfreq     Iform   sens_ID   fct_IDF            Ascale_F   fric_ID
                                                                                                    
## HM Warning: The set associated with the above card is being output in a different location of the deck.
#---1----|----2----|----3----|----4----|----5----|----6----|----7----|----8----|----9----|---10----|
##HMGROUP  10 37
/INTER/TYPE7/10
#Title                                                                                              
Tube_t2                                                                                             
# grnod_id   surf_id      Istf      Ithe      Igap                Ibag      Idel     Icurv      Iadm
        40        44                                                                                
#         Fscale_gap             Gap_max             Fpenmax
                                                            
#              Stmin               Stmax                                   dtmin  Irem_gap   Irem_i2
                                                                                                    
#              Stfac                Fric              Gapmin              Tstart               Tstop
                 0.1                 0.2                                                            
#      IBC                        Inacti                VisS                VisF              Bumult
       000                                                                                          
#    Ifric    Ifiltr               Xfreq     Iform   sens_ID   fct_IDF            Ascale_F   fric_ID
                                                                                                    
## HM Warning: The set associated with the above card is being output in a different location of the deck.
#---1----|----2----|----3----|----4----|----5----|----6----|----7----|----8----|----9----|---10----|
##HMGROUP  11 37
/INTER/TYPE7/11
#Title                                                                                              
Tube_t3                                                                                             
# grnod_id   surf_id      Istf      Ithe      Igap                Ibag      Idel     Icurv      Iadm
        40        45                                                                                
#         Fscale_gap             Gap_max             Fpenmax
                                                            
#              Stmin               Stmax                                   dtmin  Irem_gap   Irem_i2
                                                                                                    
#              Stfac                Fric              Gapmin              Tstart               Tstop
                 0.1                 0.2                                                            
#      IBC                        Inacti                VisS                VisF              Bumult
       000                                                                                          
#    Ifric    Ifiltr               Xfreq     Iform   sens_ID   fct_IDF            Ascale_F   fric_ID
                                                                                                    
## HM Warning: The set associated with the above card is being output in a different location of the deck.
#---1----|----2----|----3----|----4----|----5----|----6----|----7----|----8----|----9----|---10----|
##HMGROUP  12 37
/INTER/TYPE7/12
#Title                                                                                              
Tube_t4                                                                                             
# grnod_id   surf_id      Istf      Ithe      Igap                Ibag      Idel     Icurv      Iadm
        40        46                                                                                
#         Fscale_gap             Gap_max             Fpenmax
                                                            
#              Stmin               Stmax                                   dtmin  Irem_gap   Irem_i2
                                                                                                    
#              Stfac                Fric              Gapmin              Tstart               Tstop
                 0.1                 0.2                                                            
#      IBC                        Inacti                VisS                VisF              Bumult
       000                                                                                          
#    Ifric    Ifiltr               Xfreq     Iform   sens_ID   fct_IDF            Ascale_F   fric_ID
                                                                                                    
## HM Warning: The set associated with the above card is being output in a different location of the deck.
#---1----|----2----|----3----|----4----|----5----|----6----|----7----|----8----|----9----|---10----|
##HMGROUP  13 37
/INTER/TYPE7/13
#Title                                                                                              
Tube_t5                                                                                             
# grnod_id   surf_id      Istf      Ithe      Igap                Ibag      Idel     Icurv      Iadm
        40        47                                                                                
#         Fscale_gap             Gap_max             Fpenmax
                                                            
#              Stmin               Stmax                                   dtmin  Irem_gap   Irem_i2
                                                                                                    
#              Stfac                Fric              Gapmin              Tstart               Tstop
                 0.1                 0.2                                                            
#      IBC                        Inacti                VisS                VisF              Bumult
       000                                                                                          
#    Ifric    Ifiltr               Xfreq     Iform   sens_ID   fct_IDF            Ascale_F   fric_ID
                                                                                                    
## HM Warning: The set associated with the above card is being output in a different location of the deck.
#---1----|----2----|----3----|----4----|----5----|----6----|----7----|----8----|----9----|---10----|
##HMMOVE elements 3338 6
/RBODY/3338
#rbody_title                                                                                        
                                                                                                    
#  node_ID   sens_ID   Skew_ID    Ispher                Mass   grnd_ID     Ikrem      ICoG   surf_ID
      3398                                                          35                              
#               J_XX                J_YY                J_ZZ
                                                            
#               J_XY                J_YZ                J_XZ
                                                            
#  Ioptoff   Iexpams
                    
##HMMOVE elements 12619 5
/RBODY/12619
#rbody_title                                                                                        
                                                                                                    
#  node_ID   sens_ID   Skew_ID    Ispher                Mass   grnd_ID     Ikrem      ICoG   surf_ID
     10933                                                          51                              
#               J_XX                J_YY                J_ZZ
                                                            
#               J_XY                J_YZ                J_XZ
                                                            
#  Ioptoff   Iexpams
                    
##HMMOVE elements 12620 5
/RBODY/12620
#rbody_title                                                                                        
                                                                                                    
#  node_ID   sens_ID   Skew_ID    Ispher                Mass   grnd_ID     Ikrem      ICoG   surf_ID
     10932                                                          52                              
#               J_XX                J_YY                J_ZZ
                                                            
#               J_XY                J_YZ                J_XZ
                                                            
#  Ioptoff   Iexpams
                    
#---1----|----2----|----3----|----4----|----5----|----6----|----7----|----8----|----9----|---10----|
##HMNAME LOADCOLS          4BC_impactor_constraint                                                  
##HWCOLOR loadcollectors 4 5
/BCS/4
fix_impact                                                                                          
#  Tra rot   skew_ID  grnod_ID
   110 111         0        32
#---1----|----2----|----3----|----4----|----5----|----6----|----7----|----8----|----9----|---10----|
##HMNAME LOADCOLS          5BC_tube_fixed                                                           
##HWCOLOR loadcollectors 5 37
/BCS/5
fix_support                                                                                         
#  Tra rot   skew_ID  grnod_ID
   111 111         0        48
#---1----|----2----|----3----|----4----|----5----|----6----|----7----|----8----|----9----|---10----|
##HMNAME LOADCOLS          1Impvel                                                                  
##HWCOLOR loadcollectors 1 25
/IMPVEL/1
imposed_velocity                                                                                    
#funct_IDT       Dir   skew_ID sensor_ID  grnod_ID  frame_ID     Icoor
         1         Z         0         0        21                   0
#            Scale_x             Scale_y              Tstart               Tstop
                                -10000.0                 0.0              1000.0
#---1----|----2----|----3----|----4----|----5----|----6----|----7----|----8----|----9----|---10----|
##HWCOLOR curves 1 4
/FUNCT/1
#title                                                                                              
FUNCT 1                                                                                             
#                  X                   Y
-1.0000000000000E-03                 1.0
                 0.1                 1.0
#---1----|----2----|----3----|----4----|----5----|----6----|----7----|----8----|----9----|---10----|
##HWCOLOR curves 13 29
/FUNCT/13
#title                                                                                              
plasticity                                                                                          
#                  X                   Y
                 0.0               180.0
                0.01               190.0
                0.02               197.0
                0.05               211.5
                 0.1               225.8
                0.15               233.6
                 0.2               238.5
                 0.4               248.5
#---1----|----2----|----3----|----4----|----5----|----6----|----7----|----8----|----9----|---10----|
/GRNOD/NODE/21
#title                                                                                              
set_impRigidMasterNode                                                                              
# item_ID1  item_ID2  item_ID3  item_ID4  item_ID5  item_ID6  item_ID7  item_ID8  item_ID9 item_ID10
      3398
#---1----|----2----|----3----|----4----|----5----|----6----|----7----|----8----|----9----|---10----|
/GRNOD/NODE/32
#title                                                                                              
set_fixed_impact                                                                                    
# item_ID1  item_ID2  item_ID3  item_ID4  item_ID5  item_ID6  item_ID7  item_ID8  item_ID9 item_ID10
      3398
#---1----|----2----|----3----|----4----|----5----|----6----|----7----|----8----|----9----|---10----|
/GRNOD/NODE/35
#title                                                                                              
rigid3338nodeset                                                                                    
# item_ID1  item_ID2  item_ID3  item_ID4  item_ID5  item_ID6  item_ID7  item_ID8  item_ID9 item_ID10
      3246      3247      3248      3249      3250      3251      3252      3253      3254      3255
      3256      3257      3258      3259      3260      3261      3262      3263      3264      3265
      3266      3267      3268      3269      3270      3271      3272      3273      3274      3275
      3276      3277      3278      3279      3280      3281      3282      3283      3284      3285
      3286      3287      3288      3289      3290      3291      3292      3293      3294      3295
      3296      3297      3298      3299      3300      3301      3302      3303      3304      3305
      3306      3307      3308      3309      3310      3311      3312      3313      3314      3315
      3316      3317      3318      3319      3320      3321      3322      3323      3324      3325
      3326      3327      3328      3329      3330      3331      3332      3333      3334      3335
      3336      3337      3338      3339      3340      3341      3342      3343      3344      3345
      3346      3347      3348      3349      3350      3351      3352      3353      3354      3355
      3356      3357      3358      3359      3360      3361      3362      3363      3364      3365
      3366      3367      3368      3369      3370      3371      3372      3373      3374      3375
      3376      3377      3378      3379      3380      3381      3382      3383      3384      3385
      3386      3387      3388      3389      3390      3391      3392      3393      3394      3395
#---1----|----2----|----3----|----4----|----5----|----6----|----7----|----8----|----9----|---10----|
/GRNOD/NODE/48
#title                                                                                              
set_sideMasterNodes                                                                                 
# item_ID1  item_ID2  item_ID3  item_ID4  item_ID5  item_ID6  item_ID7  item_ID8  item_ID9 item_ID10
     10933     10932
#---1----|----2----|----3----|----4----|----5----|----6----|----7----|----8----|----9----|---10----|
/GRNOD/NODE/51
#title                                                                                              
set_sideRBE2Nodes                                                                                   
# item_ID1  item_ID2  item_ID3  item_ID4  item_ID5  item_ID6  item_ID7  item_ID8  item_ID9 item_ID10
      3399      3400      3401      3642      3643      3644      3885      3886      3887      4128
      4129      4130      4371      4372      4373      4614      4615      4616      4857      4858
      4859      5100      5181      5182      5183      5424      5505      5506      5507      5748
      5749      5910      5911      6072      6153      6234      6315      6396      6397      6558
      6559      6560      6801      6882      6963      7044      7045      7206      7207      7368
      7369      7530      7531      7692      7693      7854      7855      8016      8017      8178
      8259      8340      8421      8422      8583      8584      8745      8746      8907      8908
      9069      9070      9231      9312      9393      9474      9555      9636      9717      9798
      9879      9960     10041     10122     10203     10284     10365     10446     10527     10608
     10689     10770     10851
#---1----|----2----|----3----|----4----|----5----|----6----|----7----|----8----|----9----|---10----|
/GRNOD/NODE/52
#title                                                                                              
rigid12620nodeset                                                                                   
# item_ID1  item_ID2  item_ID3  item_ID4  item_ID5  item_ID6  item_ID7  item_ID8  item_ID9 item_ID10
      3481      3482      3483      3724      3725      3726      3967      3968      3969      4210
      4211      4212      4453      4454      4455      4696      4697      4698      4939      4940
      4941      5101      5263      5264      5265      5425      5587      5588      5589      5829
      5830      5991      5992      6073      6154      6235      6316      6477      6478      6640
      6641      6642      6802      6883      6964      7125      7126      7287      7288      7449
      7450      7611      7612      7773      7774      7935      7936      8097      8098      8179
      8260      8341      8502      8503      8664      8665      8826      8827      8988      8989
      9150      9151      9232      9313      9394      9475      9556      9637      9718      9799
      9880      9961     10042     10123     10204     10285     10366     10447     10528     10609
     10690     10771     10852
#---1----|----2----|----3----|----4----|----5----|----6----|----7----|----8----|----9----|---10----|
/SURF/PART/17
#title                                                                                              
INTER_group_17_of_PART                                                                              
# item_ID1  item_ID2  item_ID3  item_ID4  item_ID5  item_ID6  item_ID7  item_ID8  item_ID9 item_ID10
#---1----|----2----|----3----|----4----|----5----|----6----|----7----|----8----|----9----|---10----|
/SURF/PART/EXT/14
#title                                                                                              
INTER_group_14_of_PART                                                                              
# item_ID1  item_ID2  item_ID3  item_ID4  item_ID5  item_ID6  item_ID7  item_ID8  item_ID9 item_ID10
#---1----|----2----|----3----|----4----|----5----|----6----|----7----|----8----|----9----|---10----|
/SURF/PART/EXT/39
#title                                                                                              
set_impactor                                                                                        
# item_ID1  item_ID2  item_ID3  item_ID4  item_ID5  item_ID6  item_ID7  item_ID8  item_ID9 item_ID10
         4
#---1----|----2----|----3----|----4----|----5----|----6----|----7----|----8----|----9----|---10----|
/SURF/PART/EXT/43
#title                                                                                              
set_t1                                                                                              
# item_ID1  item_ID2  item_ID3  item_ID4  item_ID5  item_ID6  item_ID7  item_ID8  item_ID9 item_ID10
         8
#---1----|----2----|----3----|----4----|----5----|----6----|----7----|----8----|----9----|---10----|
/SURF/PART/EXT/44
#title                                                                                              
set_t2                                                                                              
# item_ID1  item_ID2  item_ID3  item_ID4  item_ID5  item_ID6  item_ID7  item_ID8  item_ID9 item_ID10
         9
#---1----|----2----|----3----|----4----|----5----|----6----|----7----|----8----|----9----|---10----|
/SURF/PART/EXT/45
#title                                                                                              
set_t3                                                                                              
# item_ID1  item_ID2  item_ID3  item_ID4  item_ID5  item_ID6  item_ID7  item_ID8  item_ID9 item_ID10
        10
#---1----|----2----|----3----|----4----|----5----|----6----|----7----|----8----|----9----|---10----|
/SURF/PART/EXT/46
#title                                                                                              
set_t4                                                                                              
# item_ID1  item_ID2  item_ID3  item_ID4  item_ID5  item_ID6  item_ID7  item_ID8  item_ID9 item_ID10
        11
#---1----|----2----|----3----|----4----|----5----|----6----|----7----|----8----|----9----|---10----|
/SURF/PART/EXT/47
#title                                                                                              
set_t5                                                                                              
# item_ID1  item_ID2  item_ID3  item_ID4  item_ID5  item_ID6  item_ID7  item_ID8  item_ID9 item_ID10
        12

